*Heading
** Job name: inc-03-01 Model name: inc-03-01
** Generated by: Abaqus/CAE 2020
*Preprint, echo=NO, model=NO, history=NO, contact=NO
** ----------------------------------------------------------------
** 
** PART INSTANCE: crack
** 
*Node
      1,   5.02259398,  -1.19394064
      2,   4.92438793,  -1.21279764
      3,   5.12080526,  -1.17511249
      4,   4.92437649,  -1.21273994
      5,   3.54963827,  -1.47683024
      6,    3.6145556,  -1.61660731
      7,   5.05083609,  -1.34125793
      8,   4.99435139,  -1.04662335
      9,   3.48428655,   -1.3361181
     10,   3.54922962,  -1.47595048
     11,   2.30549955,  -2.28969908
     12,   2.38296819,  -2.41932297
     13,   0.96981281,   -2.8499999
     14,  0.999899387,  -2.99950004
     15,           0.,   -2.8499999
     16,           0.,  -2.99950004
     17,   2.38348627,   -2.4201901
     18,    2.4609549,  -2.54981399
     19,   1.03018713,   -3.1500001
     20,           0.,   -3.1500001
** ... 6664 like lines cut
*Element, type=CPE4R
 1,  28,  29, 830, 829
 2,  29,  30, 831, 830
 3,  30,   2,  31, 831
 4, 829, 830, 833, 832
 5, 830, 831, 834, 833
 6, 831,  31,  32, 834
 7, 832, 833, 836, 835
 8, 833, 834, 837, 836
 9, 834,  32,  33, 837
10, 835, 836, 839, 838
11, 836, 837, 840, 839
12, 837,  33,  34, 840
13, 838, 839, 842, 841
14, 839, 840, 843, 842
15, 840,  34,  35, 843
16, 841, 842, 845, 844
17, 842, 843, 846, 845
18, 843,  35,  36, 846
19, 844, 845, 848, 847
20, 845, 846, 849, 848
** ... 6435 like lines cut
*Nset, nset=crack_all, generate
    1,  6684,     1
*Elset, elset=crack_all, generate
    1,  6455,     1
*Nset, nset=crack_bulk, generate
    1,  6684,     1
*Elset, elset=crack_bulk, generate
    1,  6455,     1
*Nset, nset=crack_top-edge
  23,  24, 624, 625, 626, 627, 628, 629, 630, 631, 632, 633, 634, 635, 636, 637
 638,
*Elset, elset=crack_top-edge
 1116, 1126, 1133, 1134, 1142, 1145, 1146, 1148, 1149, 1152, 1334, 1829, 5697, 5700, 5702, 5733
*Nset, nset=crack_bot-edge
  21,  22, 559, 560, 561, 562, 563, 564, 565, 566, 567, 568, 569, 570, 571, 572
 573,
*Elset, elset=crack_bot-edge
 1102, 1104, 1105, 1107, 1232, 1294, 1297, 2392, 4225, 5624, 5683, 5684, 5690, 5704, 5705, 5707
*Nset, nset=crack_finer-edges
  15,  16,  20,  21,  22,  23,  24,  27, 453, 553, 554, 555, 556, 557, 558, 574
 575, 576, 577, 578, 579, 580, 581, 582, 583, 584, 585, 586, 587, 588, 589, 590
 591, 592, 593, 594, 595, 596, 597, 598, 599, 600, 601, 602, 603, 604, 605, 606
 607, 608, 609, 610, 611, 612, 613, 614, 615, 616, 617, 618, 619, 620, 621, 622
 623, 639, 640, 641, 642, 643, 644, 645, 646, 647, 648, 649, 650, 651, 652, 653
 654, 655, 656, 657, 658, 659, 660, 661, 662, 663, 664, 665, 666, 667, 668, 669
 670, 671, 672, 673, 674, 675, 676, 677, 678, 679, 680
*Elset, elset=crack_finer-edges
  904,  906, 1058, 1060, 1062, 1079, 1082, 1084, 1085, 1096, 1097, 1107, 1110, 1118, 1123, 1125
 1132, 1152, 1155, 1157, 1170, 1173, 1256, 1260, 1264, 1270, 1278, 1293, 1294, 1295, 1299, 1300
 1301, 1302, 1303, 1305, 1306, 1307, 1308, 1310, 1311, 1312, 1313, 1314, 1315, 1316, 1317, 1319
 1320, 1322, 1323, 1324, 1325, 1326, 1327, 1328, 1331, 1332, 1337, 1338, 1339, 1341, 1342, 1344
 1345, 1347, 1348, 1352, 1356, 1359, 1360, 1361, 1362, 1363, 1364, 1365, 1492, 1495, 1603, 1604
 1734, 1735, 1741, 1742, 1743, 1744, 1746, 1749, 1752, 1754, 1756, 1758, 1763, 1829, 1831, 1834
 1836, 1846, 1848, 1850, 1852, 1854, 5810, 6427
*Nset, nset=crack_line-hole-00
  25, 711, 712, 713, 714, 715, 716, 717, 718, 719, 720, 721, 722, 723, 724, 725
 726, 727, 728, 729, 730, 731, 732, 733, 734, 735, 736, 737, 738, 739, 740, 741
 742, 743, 744, 745, 746, 747, 748, 749, 750, 751, 752, 753, 754, 755, 756, 757
 758, 759, 760, 761, 762, 763, 764, 765, 766, 767, 768, 769, 770, 771, 772, 773
 774, 775, 776, 777
*Elset, elset=crack_line-hole-00
 1068, 1069, 1070, 1071, 1078, 1080, 1081, 1083, 1087, 1088, 1089, 1092, 1093, 1095, 1150, 1151
 1166, 1204, 1205, 1206, 1207, 1208, 1210, 1211, 1212, 1213, 1214, 1215, 1216, 1217, 1218, 1220
 1221, 1223, 1225, 1349, 1477, 1478, 1479, 1480, 1481, 1482, 1484, 1486, 1487, 1488, 1489, 1490
 1500, 1501, 1740, 1745, 1761, 1762, 1764, 1765, 1771, 1772, 1773, 1774, 1775, 1777, 1788, 1791
 1806, 1810, 1813, 1814
*Nset, nset=crack_only-holes
  15,  16,  20,  21,  22,  23,  24,  25,  27, 453, 553, 554, 555, 556, 557, 558
 574, 575, 576, 577, 578, 579, 580, 581, 582, 583, 584, 585, 586, 587, 588, 589
 590, 591, 592, 593, 594, 595, 596, 597, 598, 599, 600, 601, 602, 603, 604, 605
 606, 607, 608, 609, 610, 611, 612, 613, 614, 615, 616, 617, 618, 619, 620, 621
 622, 623, 639, 640, 641, 642, 643, 644, 645, 646, 647, 648, 649, 650, 651, 652
 653, 654, 655, 656, 657, 658, 659, 660, 661, 662, 663, 664, 665, 666, 667, 668
 669, 670, 671, 672, 673, 674, 675, 676, 677, 678, 679, 680, 711, 712, 713, 714
 715, 716, 717, 718, 719, 720, 721, 722, 723, 724, 725, 726, 727, 728, 729, 730
 731, 732, 733, 734, 735, 736, 737, 738, 739, 740, 741, 742, 743, 744, 745, 746
 747, 748, 749, 750, 751, 752, 753, 754, 755, 756, 757, 758, 759, 760, 761, 762
 763, 764, 765, 766, 767, 768, 769, 770, 771, 772, 773, 774, 775, 776, 777
*Elset, elset=crack_only-holes
  904,  906, 1058, 1060, 1062, 1068, 1069, 1070, 1071, 1078, 1079, 1080, 1081, 1082, 1083, 1084
 1085, 1087, 1088, 1089, 1092, 1093, 1095, 1096, 1097, 1107, 1110, 1118, 1123, 1125, 1132, 1150
 1151, 1152, 1155, 1157, 1166, 1170, 1173, 1204, 1205, 1206, 1207, 1208, 1210, 1211, 1212, 1213
 1214, 1215, 1216, 1217, 1218, 1220, 1221, 1223, 1225, 1256, 1260, 1264, 1270, 1278, 1293, 1294
 1295, 1299, 1300, 1301, 1302, 1303, 1305, 1306, 1307, 1308, 1310, 1311, 1312, 1313, 1314, 1315
 1316, 1317, 1319, 1320, 1322, 1323, 1324, 1325, 1326, 1327, 1328, 1331, 1332, 1337, 1338, 1339
 1341, 1342, 1344, 1345, 1347, 1348, 1349, 1352, 1356, 1359, 1360, 1361, 1362, 1363, 1364, 1365
 1477, 1478, 1479, 1480, 1481, 1482, 1484, 1486, 1487, 1488, 1489, 1490, 1492, 1495, 1500, 1501
 1603, 1604, 1734, 1735, 1740, 1741, 1742, 1743, 1744, 1745, 1746, 1749, 1752, 1754, 1756, 1758
 1761, 1762, 1763, 1764, 1765, 1771, 1772, 1773, 1774, 1775, 1777, 1788, 1791, 1806, 1810, 1813
 1814, 1829, 1831, 1834, 1836, 1846, 1848, 1850, 1852, 1854, 5810, 6427
*Nset, nset=crack_hole-lines
  15,  16,  20,  21,  22,  23,  24,  25,  27, 453, 553, 554, 555, 556, 557, 558
 559, 560, 561, 562, 563, 564, 565, 566, 567, 568, 569, 570, 571, 572, 573, 574
 575, 576, 577, 578, 579, 580, 581, 582, 583, 584, 585, 586, 587, 588, 589, 590
 591, 592, 593, 594, 595, 596, 597, 598, 599, 600, 601, 602, 603, 604, 605, 606
 607, 608, 609, 610, 611, 612, 613, 614, 615, 616, 617, 618, 619, 620, 621, 622
 623, 624, 625, 626, 627, 628, 629, 630, 631, 632, 633, 634, 635, 636, 637, 638
 639, 640, 641, 642, 643, 644, 645, 646, 647, 648, 649, 650, 651, 652, 653, 654
 655, 656, 657, 658, 659, 660, 661, 662, 663, 664, 665, 666, 667, 668, 669, 670
 671, 672, 673, 674, 675, 676, 677, 678, 679, 680, 711, 712, 713, 714, 715, 716
 717, 718, 719, 720, 721, 722, 723, 724, 725, 726, 727, 728, 729, 730, 731, 732
 733, 734, 735, 736, 737, 738, 739, 740, 741, 742, 743, 744, 745, 746, 747, 748
 749, 750, 751, 752, 753, 754, 755, 756, 757, 758, 759, 760, 761, 762, 763, 764
 765, 766, 767, 768, 769, 770, 771, 772, 773, 774, 775, 776, 777
*Elset, elset=crack_hole-lines
  904,  906, 1058, 1060, 1062, 1068, 1069, 1070, 1071, 1078, 1079, 1080, 1081, 1082, 1083, 1084
 1085, 1087, 1088, 1089, 1092, 1093, 1095, 1096, 1097, 1102, 1104, 1105, 1107, 1110, 1116, 1118
 1123, 1125, 1126, 1132, 1133, 1134, 1142, 1145, 1146, 1148, 1149, 1150, 1151, 1152, 1155, 1157
 1166, 1170, 1173, 1204, 1205, 1206, 1207, 1208, 1210, 1211, 1212, 1213, 1214, 1215, 1216, 1217
 1218, 1220, 1221, 1223, 1225, 1232, 1256, 1260, 1264, 1270, 1278, 1293, 1294, 1295, 1297, 1299
 1300, 1301, 1302, 1303, 1305, 1306, 1307, 1308, 1310, 1311, 1312, 1313, 1314, 1315, 1316, 1317
 1319, 1320, 1322, 1323, 1324, 1325, 1326, 1327, 1328, 1331, 1332, 1334, 1337, 1338, 1339, 1341
 1342, 1344, 1345, 1347, 1348, 1349, 1352, 1356, 1359, 1360, 1361, 1362, 1363, 1364, 1365, 1477
 1478, 1479, 1480, 1481, 1482, 1484, 1486, 1487, 1488, 1489, 1490, 1492, 1495, 1500, 1501, 1603
 1604, 1734, 1735, 1740, 1741, 1742, 1743, 1744, 1745, 1746, 1749, 1752, 1754, 1756, 1758, 1761
 1762, 1763, 1764, 1765, 1771, 1772, 1773, 1774, 1775, 1777, 1788, 1791, 1806, 1810, 1813, 1814
 1829, 1831, 1834, 1836, 1846, 1848, 1850, 1852, 1854, 2392, 4225, 5624, 5683, 5684, 5690, 5697
 5700, 5702, 5704, 5705, 5707, 5733, 5810, 6427
*Nset, nset=crack_crack-tip00
 1,
*Nset, nset=crack_all-lines
   1,   2,   4,   5,  10,  12,  14,  15,  16,  17,  20,  21,  22,  23,  24,  25
  26,  27,  28,  29,  30,  55,  56,  57, 205, 206, 207, 208, 209, 210, 211, 212
 213, 214, 215, 216, 217, 218, 219, 220, 221, 222, 223, 224, 225, 226, 227, 228
 229, 230, 231, 232, 233, 234, 235, 236, 237, 238, 239, 240, 241, 242, 243, 244
 245, 246, 247, 248, 249, 250, 251, 252, 253, 254, 255, 256, 257, 258, 259, 260
 261, 262, 263, 264, 265, 266, 267, 268, 269, 270, 271, 272, 273, 274, 275, 276
 277, 278, 279, 280, 281, 282, 283, 284, 285, 286, 287, 288, 289, 290, 291, 292
 293, 294, 295, 296, 297, 298, 299, 300, 301, 302, 303, 304, 305, 306, 307, 308
 309, 310, 311, 312, 313, 314, 347, 348, 349, 350, 351, 352, 353, 354, 355, 356
 357, 358, 359, 360, 361, 362, 363, 364, 365, 366, 367, 368, 369, 370, 371, 372
 373, 374, 375, 378, 379, 380, 381, 382, 383, 384, 385, 386, 387, 388, 389, 390
 391, 392, 393, 394, 395, 396, 397, 398, 399, 400, 401, 402, 403, 404, 405, 406
 453, 454, 455, 456, 457, 458, 459, 460, 461, 462, 463, 464, 465, 466, 467, 468
 469, 470, 471, 472, 504, 505, 506, 507, 508, 509, 510, 511, 512, 513, 514, 515
 516, 517, 518, 519, 520, 521, 522, 523, 524, 525, 526, 527, 528, 529, 530, 531
 532, 553, 554, 555, 556, 557, 558, 559, 560, 561, 562, 563, 564, 565, 566, 567
 568, 569, 570, 571, 572, 573, 574, 575, 576, 577, 578, 579, 580, 581, 582, 583
 584, 585, 586, 587, 588, 589, 590, 591, 592, 593, 594, 595, 596, 597, 598, 599
 600, 601, 602, 603, 604, 605, 606, 607, 608, 609, 610, 611, 612, 613, 614, 615
 616, 617, 618, 619, 620, 621, 622, 623, 624, 625, 626, 627, 628, 629, 630, 631
** ... 11 like lines cut
*Elset, elset=crack_all-lines
    1,    2,    3,   76,   77,   78,   79,   82,   83,   88,  103,  127,  133,  147,  148,  149
  150,  151,  152,  153,  154,  157,  159,  167,  168,  170,  172,  174,  176,  177,  180,  187
  189,  201,  202,  231,  232,  234,  236,  237,  238,  239,  241,  247,  248,  249,  250,  251
  252,  253,  254,  255,  256,  257,  258,  259,  260,  303,  304,  305,  306,  307,  308,  309
  310,  312,  313,  314,  315,  317,  319,  324,  326,  327,  329,  331,  332,  333,  334,  335
  337,  339,  341,  343,  363,  367,  370,  395,  409,  419,  426,  429,  473,  484,  485,  486
  489,  499,  500,  509,  510,  513,  516,  519,  520,  583,  587,  588,  589,  590,  596,  597
  600,  601,  620,  622,  623,  624,  700,  702,  709,  711,  714,  716,  720,  722,  724,  726
  727,  729,  730,  732,  735,  738,  739,  743,  745,  748,  749,  759,  760,  764,  766,  768
  770,  771,  774,  775,  798,  808,  809,  814,  821,  824,  846,  851,  853,  854,  856,  861
  862,  863,  864,  866,  869,  870,  871,  872,  875,  876,  877,  878,  879,  880,  881,  882
  883,  886,  889,  890,  892,  894,  896,  898,  902,  904,  906,  907,  909,  910,  913,  915
  918,  921,  926,  930,  933,  934,  936,  952,  960,  962,  976,  992, 1003, 1018, 1019, 1020
 1021, 1022, 1023, 1025, 1027, 1028, 1029, 1030, 1031, 1032, 1033, 1034, 1035, 1036, 1037, 1038
 1039, 1040, 1042, 1044, 1045, 1058, 1060, 1062, 1068, 1069, 1070, 1071, 1078, 1079, 1080, 1081
 1082, 1083, 1084, 1085, 1087, 1088, 1089, 1092, 1093, 1095, 1096, 1097, 1102, 1104, 1105, 1107
 1110, 1116, 1118, 1123, 1125, 1126, 1132, 1133, 1134, 1142, 1145, 1146, 1148, 1149, 1150, 1151
 1152, 1155, 1157, 1166, 1170, 1173, 1204, 1205, 1206, 1207, 1208, 1210, 1211, 1212, 1213, 1214
 1215, 1216, 1217, 1218, 1220, 1221, 1223, 1225, 1232, 1256, 1260, 1264, 1270, 1278, 1293, 1294
 1295, 1297, 1299, 1300, 1301, 1302, 1303, 1305, 1306, 1307, 1308, 1310, 1311, 1312, 1313, 1314
** ... 10 like lines cut
*Nset, nset=crack_crack00
   1,   2,   4,   5,  10,  12,  14,  16,  17,  26,  27,  28,  29,  30,  55,  56
  57, 205, 206, 207, 208, 209, 210, 211, 212, 213, 214, 215, 216, 217, 218, 219
 220, 221, 222, 223, 224, 225, 226, 227, 228, 229, 230, 231, 232, 233, 234, 235
 236, 237, 238, 239, 240, 241, 242, 243, 244, 245, 246, 247, 248, 249, 250, 251
 252, 253, 254, 255, 256, 257, 258, 259, 260, 261, 262, 263, 264, 265, 266, 267
 268, 269, 270, 271, 272, 273, 274, 275, 276, 277, 278, 279, 280, 281, 282, 283
 284, 285, 286, 287, 288, 289, 290, 291, 292, 293, 294, 295, 296, 297, 298, 299
 300, 301, 302, 303, 304, 305, 306, 307, 308, 309, 310, 311, 312, 313, 314, 347
 348, 349, 350, 351, 352, 353, 354, 355, 356, 357, 358, 359, 360, 361, 362, 363
 364, 365, 366, 367, 368, 369, 370, 371, 372, 373, 374, 375, 378, 379, 380, 381
 382, 383, 384, 385, 386, 387, 388, 389, 390, 391, 392, 393, 394, 395, 396, 397
 398, 399, 400, 401, 402, 403, 404, 405, 406, 454, 455, 456, 457, 458, 459, 460
 461, 462, 463, 464, 465, 466, 467, 468, 469, 470, 471, 472, 504, 505, 506, 507
 508, 509, 510, 511, 512, 513, 514, 515, 516, 517, 518, 519, 520, 521, 522, 523
 524, 525, 526, 527, 528, 529, 530, 531, 532, 781, 782, 783, 784, 785, 786, 787
 788, 789, 790, 791, 792, 793, 794, 795, 796, 797, 798, 799, 800, 801, 802, 803
 804, 805, 806, 807, 808, 809, 810, 811, 812, 813, 814, 815, 816, 817, 818, 819
 820, 821, 822, 823, 824, 825, 826, 827, 828
*Elset, elset=crack_crack00
    1,    2,    3,   76,   77,   78,   79,   82,   83,   88,  103,  127,  133,  147,  148,  149
  150,  151,  152,  153,  154,  157,  159,  167,  168,  170,  172,  174,  176,  177,  180,  187
  189,  201,  202,  231,  232,  234,  236,  237,  238,  239,  241,  247,  248,  249,  250,  251
  252,  253,  254,  255,  256,  257,  258,  259,  260,  303,  304,  305,  306,  307,  308,  309
  310,  312,  313,  314,  315,  317,  319,  324,  326,  327,  329,  331,  332,  333,  334,  335
  337,  339,  341,  343,  363,  367,  370,  395,  409,  419,  426,  429,  473,  484,  485,  486
  489,  499,  500,  509,  510,  513,  516,  519,  520,  583,  587,  588,  589,  590,  596,  597
  600,  601,  620,  622,  623,  624,  700,  702,  709,  711,  714,  716,  720,  722,  724,  726
  727,  729,  730,  732,  735,  738,  739,  743,  745,  748,  749,  759,  760,  764,  766,  768
  770,  771,  774,  775,  798,  808,  809,  814,  821,  824,  846,  851,  853,  854,  856,  861
  862,  863,  864,  866,  869,  870,  871,  872,  875,  876,  877,  878,  879,  880,  881,  882
  883,  886,  889,  890,  892,  894,  896,  898,  902,  904,  907,  909,  910,  913,  915,  918
  921,  926,  930,  933,  934,  936,  952,  960,  962,  976,  992, 1003, 1018, 1019, 1020, 1021
 1022, 1023, 1025, 1027, 1028, 1029, 1030, 1031, 1032, 1033, 1034, 1035, 1036, 1037, 1038, 1039
 1040, 1042, 1044, 1045, 6270, 6277, 6278, 6280, 6282, 6284, 6288, 6292, 6294, 6296, 6298, 6300
 6302, 6305, 6306, 6309, 6310, 6312, 6313, 6316, 6317, 6320, 6321, 6323, 6326, 6333, 6336, 6337
 6342, 6344, 6366, 6403, 6404, 6405, 6406, 6407, 6408, 6414, 6415, 6416, 6417, 6418, 6421, 6422
 6423, 6424, 6425, 6426, 6427, 6428, 6430, 6455
*Nset, nset=crack_crack-region-edg00
   2,   3,   4,   5,   6,   7,   8,   9,  10,  11,  12,  13,  14,  15,  17,  18
  19,  20,  26,  31,  32,  33,  34,  35,  36,  37,  38,  39,  40,  41,  42,  43
  44,  45,  46,  47,  48,  49,  50,  51,  52,  53,  54,  58,  59,  60,  61,  62
  63,  64,  65,  66,  67,  68,  69,  70,  71,  72,  73,  74,  75,  76,  77,  78
  79,  80,  81,  82,  83,  84,  85,  86,  87,  88,  89,  90,  91,  92,  93,  94
  95,  96,  97,  98,  99, 100, 101, 102, 103, 104, 105, 106, 107, 108, 109, 110
 111, 112, 113, 114, 115, 116, 117, 118, 119, 120, 121, 122, 123, 124, 125, 126
 127, 128, 129, 130, 131, 132, 133, 134, 135, 136, 137, 138, 139, 140, 141, 142
 143, 144, 145, 146, 147, 148, 149, 150, 151, 152, 153, 154, 155, 156, 157, 158
 159, 160, 161, 162, 163, 164, 165, 166, 167, 168, 169, 170, 171, 172, 173, 174
 175, 176, 177, 178, 179, 180, 181, 182, 183, 184, 185, 186, 187, 188, 189, 190
 191, 192, 193, 194, 195, 196, 197, 198, 199, 200, 201, 202, 203, 204, 315, 316
 317, 318, 319, 320, 321, 322, 323, 324, 325, 326, 327, 328, 329, 330, 331, 332
 333, 334, 335, 336, 337, 338, 339, 340, 341, 342, 343, 344, 345, 346, 376, 377
 407, 408, 409, 410, 411, 412, 413, 414, 415, 416, 417, 418, 419, 420, 421, 422
 423, 424, 425, 426, 427, 428, 429, 430, 431, 432, 433, 434, 435, 436, 437, 438
 439, 440, 441, 442, 443, 444, 445, 446, 447, 448, 449, 450, 451, 452, 473, 474
 475, 476, 477, 478, 479, 480, 481, 482, 483, 484, 485, 486, 487, 488, 489, 490
 491, 492, 493, 494, 495, 496, 497, 498, 499, 500, 501, 502, 503, 533, 534, 535
 536, 537, 538, 539, 540, 541, 542, 543, 544, 545, 546, 547, 548, 549, 550, 551
 552, 681, 682, 683, 684, 685, 686, 687, 688, 689, 690, 691, 692, 693, 694, 695
 696, 697, 698, 699, 700, 701, 702, 703, 704, 705, 706, 707, 708, 709, 710, 778
 779, 780
*Elset, elset=crack_crack-region-edg00
    3,    6,    9,   12,   15,   18,   21,   24,   27,   30,   33,   36,   39,   42,   45,   48
   51,   54,   57,   60,   63,   66,   69,   72,   75,   78,   79,   85,   89,   90,   91,   92
   93,   94,   95,   96,   98,   99,  102,  106,  107,  108,  109,  110,  111,  114,  115,  116
  118,  119,  121,  122,  123,  124,  125,  129,  130,  131,  132,  135,  136,  143,  146,  155
  156,  157,  166,  169,  170,  181,  182,  183,  184,  185,  186,  190,  191,  193,  195,  196
  198,  200,  203,  204,  205,  210,  211,  212,  214,  215,  216,  218,  219,  220,  221,  222
  224,  225,  226,  228,  230,  231,  243,  244,  245,  246,  264,  265,  267,  270,  271,  272
  273,  274,  276,  278,  279,  280,  281,  282,  283,  284,  285,  286,  288,  290,  292,  293
  295,  296,  298,  299,  346,  347,  348,  351,  354,  355,  359,  360,  362,  368,  374,  375
  377,  378,  380,  388,  391,  398,  406,  407,  410,  411,  428,  433,  455,  459,  461,  468
  475,  481,  483,  488,  491,  492,  497,  525,  534,  535,  537,  540,  541,  543,  546,  553
  554,  557,  560,  562,  563,  564,  565,  566,  567,  568,  570,  571,  572,  573,  574,  577
  578,  579,  582,  602,  604,  605,  609,  610,  611,  612,  700,  704,  705,  706,  710,  717
  719,  729,  731,  733,  737,  740,  742,  744,  751,  752,  753,  754,  756,  757,  758,  762
  763,  765,  767,  769,  773,  776,  777,  778,  779,  781,  785,  786,  787,  788,  790,  796
  798,  799,  800,  822,  824,  825,  826,  827,  828,  829,  830,  831,  832,  833,  835,  836
  837,  838,  839,  841,  842,  843,  844,  847,  848,  849,  850,  852,  855,  857,  859,  865
  868,  874,  889,  901,  906,  920,  922,  923,  924,  925,  927,  928,  929,  931,  932,  938
  939,  940,  941,  942,  943,  944,  945,  948,  956,  959,  961,  964,  965,  969,  971,  973
  974,  976,  977,  979,  980,  983,  984,  986,  987,  990,  991,  994,  995,  998,  999, 1000
** ... 24 like lines cut
*Nset, nset=crack_crack-region00
    1,    2,    3,    4,    5,    6,    7,    8,    9,   10,   11,   12,   13,   14,   15,   16
   17,   18,   19,   20,   26,   27,   28,   29,   30,   31,   32,   33,   34,   35,   36,   37
   38,   39,   40,   41,   42,   43,   44,   45,   46,   47,   48,   49,   50,   51,   52,   53
   54,   55,   56,   57,   58,   59,   60,   61,   62,   63,   64,   65,   66,   67,   68,   69
   70,   71,   72,   73,   74,   75,   76,   77,   78,   79,   80,   81,   82,   83,   84,   85
   86,   87,   88,   89,   90,   91,   92,   93,   94,   95,   96,   97,   98,   99,  100,  101
  102,  103,  104,  105,  106,  107,  108,  109,  110,  111,  112,  113,  114,  115,  116,  117
  118,  119,  120,  121,  122,  123,  124,  125,  126,  127,  128,  129,  130,  131,  132,  133
  134,  135,  136,  137,  138,  139,  140,  141,  142,  143,  144,  145,  146,  147,  148,  149
  150,  151,  152,  153,  154,  155,  156,  157,  158,  159,  160,  161,  162,  163,  164,  165
  166,  167,  168,  169,  170,  171,  172,  173,  174,  175,  176,  177,  178,  179,  180,  181
  182,  183,  184,  185,  186,  187,  188,  189,  190,  191,  192,  193,  194,  195,  196,  197
  198,  199,  200,  201,  202,  203,  204,  205,  206,  207,  208,  209,  210,  211,  212,  213
  214,  215,  216,  217,  218,  219,  220,  221,  222,  223,  224,  225,  226,  227,  228,  229
  230,  231,  232,  233,  234,  235,  236,  237,  238,  239,  240,  241,  242,  243,  244,  245
  246,  247,  248,  249,  250,  251,  252,  253,  254,  255,  256,  257,  258,  259,  260,  261
  262,  263,  264,  265,  266,  267,  268,  269,  270,  271,  272,  273,  274,  275,  276,  277
  278,  279,  280,  281,  282,  283,  284,  285,  286,  287,  288,  289,  290,  291,  292,  293
  294,  295,  296,  297,  298,  299,  300,  301,  302,  303,  304,  305,  306,  307,  308,  309
  310,  311,  312,  313,  314,  315,  316,  317,  318,  319,  320,  321,  322,  323,  324,  325
** ... 75 like lines cut
*Elset, elset=crack_crack-region00
    1,    2,    3,    4,    5,    6,    7,    8,    9,   10,   11,   12,   13,   14,   15,   16
   17,   18,   19,   20,   21,   22,   23,   24,   25,   26,   27,   28,   29,   30,   31,   32
   33,   34,   35,   36,   37,   38,   39,   40,   41,   42,   43,   44,   45,   46,   47,   48
   49,   50,   51,   52,   53,   54,   55,   56,   57,   58,   59,   60,   61,   62,   63,   64
   65,   66,   67,   68,   69,   70,   71,   72,   73,   74,   75,   76,   77,   78,   79,   80
   81,   82,   83,   84,   85,   86,   87,   88,   89,   90,   91,   92,   93,   94,   95,   96
   97,   98,   99,  100,  101,  102,  103,  104,  105,  106,  107,  108,  109,  110,  111,  112
  113,  114,  115,  116,  117,  118,  119,  120,  121,  122,  123,  124,  125,  126,  127,  128
  129,  130,  131,  132,  133,  134,  135,  136,  137,  138,  139,  140,  141,  142,  143,  144
  145,  146,  147,  148,  149,  150,  151,  152,  153,  154,  155,  156,  157,  158,  159,  160
  161,  162,  163,  164,  165,  166,  167,  168,  169,  170,  171,  172,  173,  174,  175,  176
  177,  178,  179,  180,  181,  182,  183,  184,  185,  186,  187,  188,  189,  190,  191,  192
  193,  194,  195,  196,  197,  198,  199,  200,  201,  202,  203,  204,  205,  206,  207,  208
  209,  210,  211,  212,  213,  214,  215,  216,  217,  218,  219,  220,  221,  222,  223,  224
  225,  226,  227,  228,  229,  230,  231,  232,  233,  234,  235,  236,  237,  238,  239,  240
  241,  242,  243,  244,  245,  246,  247,  248,  249,  250,  251,  252,  253,  254,  255,  256
  257,  258,  259,  260,  261,  262,  263,  264,  265,  266,  267,  268,  269,  270,  271,  272
  273,  274,  275,  276,  277,  278,  279,  280,  281,  282,  283,  284,  285,  286,  287,  288
  289,  290,  291,  292,  293,  294,  295,  296,  297,  298,  299,  300,  301,  302,  303,  304
  305,  306,  307,  308,  309,  310,  311,  312,  313,  314,  315,  316,  317,  318,  319,  320
** ... 57 like lines cut
*Nset, nset=crack_crack-circ00
   1,   2,   3,   4,  28,  29,  30,  31,  32,  33,  34,  35,  36,  37,  38,  39
  40,  41,  42,  43,  44,  45,  46,  47,  48,  49,  50,  51,  52,  53,  54,  55
  56,  57, 829, 830, 831, 832, 833, 834, 835, 836, 837, 838, 839, 840, 841, 842
 843, 844, 845, 846, 847, 848, 849, 850, 851, 852, 853, 854, 855, 856, 857, 858
 859, 860, 861, 862, 863, 864, 865, 866, 867, 868, 869, 870, 871, 872, 873, 874
 875, 876, 877, 878, 879, 880, 881, 882, 883, 884, 885, 886, 887, 888, 889, 890
 891, 892, 893, 894, 895, 896, 897, 898, 899, 900, 901, 902, 903
*Elset, elset=crack_crack-circ00
    1,    2,    3,    4,    5,    6,    7,    8,    9,   10,   11,   12,   13,   14,   15,   16
   17,   18,   19,   20,   21,   22,   23,   24,   25,   26,   27,   28,   29,   30,   31,   32
   33,   34,   35,   36,   37,   38,   39,   40,   41,   42,   43,   44,   45,   46,   47,   48
   49,   50,   51,   52,   53,   54,   55,   56,   57,   58,   59,   60,   61,   62,   63,   64
   65,   66,   67,   68,   69,   70,   71,   72,   73,   74,   75,   76,   77,   78, 6430, 6431
 6432, 6433, 6434, 6435, 6436, 6437, 6438, 6439, 6440, 6441, 6442, 6443, 6444, 6445, 6446, 6447
 6448, 6449, 6450, 6451, 6452, 6453, 6454, 6455
*Nset, nset=crack_eval-faces0
    1,    2,    3,    4,    5,    6,    7,    8,    9,   10,   28,   29,   30,   31,   32,   33
   34,   35,   36,   37,   38,   39,   40,   41,   42,   43,   44,   45,   46,   47,   48,   49
   50,   51,   52,   53,   54,   55,   56,   57,   58,   59,   60,   61,   62,   63,   64,   65
   66,   67,   68,   69,   70,   71,   72,   73,   74,   75,   76,   77,   78,   79,   80,   81
   82,   83,   84,   85,   86,   87,   88,   89,   90,   91,   92,   93,   94,   95,   96,   97
   98,   99,  100,  101,  102,  103,  104,  105,  106,  107,  108,  109,  110,  111,  112,  113
  114,  115,  116,  117,  118,  119,  120,  121,  122,  123,  124,  125,  126,  127,  128,  129
  130,  131,  132,  133,  134,  135,  136,  137,  138,  139,  140,  141,  142,  143,  144,  145
  146,  147,  148,  149,  150,  151,  152,  153,  154,  155,  156,  157,  158,  159,  160,  161
  162,  163,  164,  165,  166,  167,  168,  169,  170,  171,  172,  173,  174,  175,  176,  177
  178,  179,  180,  181,  182,  183,  184,  185,  186,  187,  188,  189,  190,  191,  192,  193
  194,  195,  196,  197,  198,  199,  200,  201,  202,  203,  204,  205,  206,  207,  208,  209
  210,  211,  212,  213,  214,  215,  216,  217,  218,  219,  220,  221,  222,  223,  224,  225
  226,  227,  228,  229,  230,  231,  232,  233,  234,  235,  236,  237,  238,  239,  240,  241
  242,  243,  244,  245,  246,  247,  248,  249,  250,  251,  252,  253,  254,  255,  256,  257
  258,  259,  260,  261,  262,  263,  264,  265,  266,  267,  268,  269,  270,  271,  272,  273
  274,  275,  276,  277,  278,  279,  280,  281,  282,  283,  284,  285,  286,  287,  288,  289
  290,  291,  292,  293,  294,  295,  296,  297,  298,  299,  300,  301,  302,  303,  304,  305
  306,  307,  308,  309,  310,  311,  312,  313,  314,  829,  830,  831,  832,  833,  834,  835
  836,  837,  838,  839,  840,  841,  842,  843,  844,  845,  846,  847,  848,  849,  850,  851
** ... 34 like lines cut
*Elset, elset=crack_eval-faces0
    1,    2,    3,    4,    5,    6,    7,    8,    9,   10,   11,   12,   13,   14,   15,   16
   17,   18,   19,   20,   21,   22,   23,   24,   25,   26,   27,   28,   29,   30,   31,   32
   33,   34,   35,   36,   37,   38,   39,   40,   41,   42,   43,   44,   45,   46,   47,   48
   49,   50,   51,   52,   53,   54,   55,   56,   57,   58,   59,   60,   61,   62,   63,   64
   65,   66,   67,   68,   69,   70,   71,   72,   73,   74,   75,   76,   77,   78,   79,   80
   81,   82,   83,   84,   85,   86,   87,   88,   89,   90,   91,   92,   93,   94,   95,   96
   97,   98,   99,  100,  101,  102,  103,  104,  105,  106,  107,  108,  109,  110,  111,  112
  113,  114,  115,  116,  117,  118,  119,  120,  121,  122,  123,  124,  125,  126,  127,  128
  129,  130,  131,  132,  133,  134,  135,  136,  137,  138,  139,  140,  141,  142,  143,  144
  145,  146,  147,  148,  149,  150,  151,  152,  153,  154,  155,  156,  157,  158,  159,  160
  161,  162,  163,  164,  165,  166,  167,  168,  169,  170,  171,  172,  173,  174,  175,  176
  177,  178,  179,  180,  181,  182,  183,  184,  185,  186,  187,  188,  189,  190,  191,  192
  193,  194,  195,  196,  197,  198,  199,  200,  201,  202,  203,  204,  205,  206,  207,  208
  209,  210,  211,  212,  213,  214,  215,  216,  217,  218,  219,  220,  221,  222,  223,  224
  225,  226,  227,  228,  229,  230,  231,  232,  233,  234,  235,  236,  237,  238,  239,  240
  241,  242,  243,  244,  245,  246,  247,  248,  249,  250,  251,  252,  253,  254,  255,  256
  257,  258,  259,  260,  261,  262,  263,  264,  265,  266,  267,  268,  269,  270,  271,  272
  273,  274,  275,  276,  277,  278,  279,  280,  281,  282,  283,  284,  285,  286,  287,  288
  289,  290,  291,  292,  293,  294,  295,  296,  297,  298,  299,  300,  301,  302,  303,  304
  305,  306,  307,  308,  309,  310,  311,  312,  313,  314,  315,  316,  317,  318,  319,  320
** ... 26 like lines cut
*Nset, nset=crack_eval-faces00
    1,    2,    3,    4,    5,    6,    7,    8,    9,   10,   28,   29,   30,   31,   32,   33
   34,   35,   36,   37,   38,   39,   40,   41,   42,   43,   44,   45,   46,   47,   48,   49
   50,   51,   52,   53,   54,   55,   56,   57,   58,   59,   60,   61,   62,   63,   64,   65
   66,   67,   68,   69,   70,   71,   72,   73,   74,   75,   76,   77,   78,   79,   80,   81
   82,   83,   84,   85,   86,   87,   88,   89,   90,   91,   92,   93,   94,   95,   96,   97
   98,   99,  100,  101,  102,  103,  104,  105,  106,  107,  108,  109,  110,  111,  112,  113
  114,  115,  116,  117,  118,  119,  120,  121,  122,  123,  124,  125,  126,  127,  128,  129
  130,  131,  132,  133,  134,  135,  136,  137,  138,  139,  140,  141,  142,  143,  144,  145
  146,  147,  148,  149,  150,  151,  152,  153,  154,  155,  156,  157,  158,  159,  160,  161
  162,  163,  164,  165,  166,  167,  168,  169,  170,  171,  172,  173,  174,  175,  176,  177
  178,  179,  180,  181,  182,  183,  184,  185,  186,  187,  188,  189,  190,  191,  192,  193
  194,  195,  196,  197,  198,  199,  200,  201,  202,  203,  204,  205,  206,  207,  208,  209
  210,  211,  212,  213,  214,  215,  216,  217,  218,  219,  220,  221,  222,  223,  224,  225
  226,  227,  228,  229,  230,  231,  232,  233,  234,  235,  236,  237,  238,  239,  240,  241
  242,  243,  244,  245,  246,  247,  248,  249,  250,  251,  252,  253,  254,  255,  256,  257
  258,  259,  260,  261,  262,  263,  264,  265,  266,  267,  268,  269,  270,  271,  272,  273
  274,  275,  276,  277,  278,  279,  280,  281,  282,  283,  284,  285,  286,  287,  288,  289
  290,  291,  292,  293,  294,  295,  296,  297,  298,  299,  300,  301,  302,  303,  304,  305
  306,  307,  308,  309,  310,  311,  312,  313,  314,  829,  830,  831,  832,  833,  834,  835
  836,  837,  838,  839,  840,  841,  842,  843,  844,  845,  846,  847,  848,  849,  850,  851
** ... 34 like lines cut
*Elset, elset=crack_eval-faces00
    1,    2,    3,    4,    5,    6,    7,    8,    9,   10,   11,   12,   13,   14,   15,   16
   17,   18,   19,   20,   21,   22,   23,   24,   25,   26,   27,   28,   29,   30,   31,   32
   33,   34,   35,   36,   37,   38,   39,   40,   41,   42,   43,   44,   45,   46,   47,   48
   49,   50,   51,   52,   53,   54,   55,   56,   57,   58,   59,   60,   61,   62,   63,   64
   65,   66,   67,   68,   69,   70,   71,   72,   73,   74,   75,   76,   77,   78,   79,   80
   81,   82,   83,   84,   85,   86,   87,   88,   89,   90,   91,   92,   93,   94,   95,   96
   97,   98,   99,  100,  101,  102,  103,  104,  105,  106,  107,  108,  109,  110,  111,  112
  113,  114,  115,  116,  117,  118,  119,  120,  121,  122,  123,  124,  125,  126,  127,  128
  129,  130,  131,  132,  133,  134,  135,  136,  137,  138,  139,  140,  141,  142,  143,  144
  145,  146,  147,  148,  149,  150,  151,  152,  153,  154,  155,  156,  157,  158,  159,  160
  161,  162,  163,  164,  165,  166,  167,  168,  169,  170,  171,  172,  173,  174,  175,  176
  177,  178,  179,  180,  181,  182,  183,  184,  185,  186,  187,  188,  189,  190,  191,  192
  193,  194,  195,  196,  197,  198,  199,  200,  201,  202,  203,  204,  205,  206,  207,  208
  209,  210,  211,  212,  213,  214,  215,  216,  217,  218,  219,  220,  221,  222,  223,  224
  225,  226,  227,  228,  229,  230,  231,  232,  233,  234,  235,  236,  237,  238,  239,  240
  241,  242,  243,  244,  245,  246,  247,  248,  249,  250,  251,  252,  253,  254,  255,  256
  257,  258,  259,  260,  261,  262,  263,  264,  265,  266,  267,  268,  269,  270,  271,  272
  273,  274,  275,  276,  277,  278,  279,  280,  281,  282,  283,  284,  285,  286,  287,  288
  289,  290,  291,  292,  293,  294,  295,  296,  297,  298,  299,  300,  301,  302,  303,  304
  305,  306,  307,  308,  309,  310,  311,  312,  313,  314,  315,  316,  317,  318,  319,  320
** ... 26 like lines cut
*Nset, nset=crack_fine-edg00
   1,   2,   3,   4,   5,   6,   7,   8,   9,  10,  28,  29,  30,  31,  32,  33
  34,  35,  36,  37,  38,  39,  40,  41,  42,  43,  44,  45,  46,  47,  48,  49
  50,  51,  52,  53,  54,  55,  56,  57,  58,  59,  60,  61,  62,  63,  64,  65
  66,  67,  68,  69,  70,  71,  72,  73,  74,  75,  76,  77,  78,  79,  80,  81
  82,  83,  84,  85,  86,  87,  88,  89,  90,  91,  92,  93,  94,  95,  96,  97
  98,  99, 100, 101, 102, 103, 104, 105, 106, 107, 108, 109, 110, 111, 112, 113
 114, 115, 116, 117, 118, 119, 120, 121, 122, 123, 124, 125, 126, 127, 128, 129
 130, 131, 132, 133, 134, 135, 136, 137, 138, 139, 140, 141, 142, 143, 144, 145
 146, 147, 148, 149, 150, 151, 152, 153, 154, 155, 156, 157, 158, 159, 160, 161
 162, 163, 164, 165, 166, 167, 168, 169, 170, 171, 172, 173, 174, 175, 176, 177
 178, 179, 180, 181, 182, 183, 184, 185, 186, 187, 188, 189, 190, 191, 192, 193
 194, 195, 196, 197, 198, 199, 200, 201, 202, 203, 204, 205, 206, 207, 208, 209
 210, 211, 212, 213, 214, 215, 216, 217, 218, 219, 220, 221, 222, 223, 224, 225
 226, 227, 228, 229, 230, 231, 232, 233, 234, 235, 236, 237, 238, 239, 240, 241
 242, 243, 244, 245, 246, 247, 248, 249, 250, 251, 252, 253, 254, 255, 256, 257
 258, 259, 260, 261, 262, 263, 264, 265, 266, 267, 268, 269, 270, 271, 272, 273
 274, 275, 276, 277, 278, 279, 280, 281, 282, 283, 284, 285, 286, 287, 288, 289
 290, 291, 292, 293, 294, 295, 296, 297, 298, 299, 300, 301, 302, 303, 304, 305
 306, 307, 308, 309, 310, 311, 312, 313, 314
*Elset, elset=crack_fine-edg00
    1,    2,    3,    6,    9,   12,   15,   18,   21,   24,   27,   30,   33,   36,   39,   42
   45,   48,   51,   54,   57,   60,   63,   66,   69,   72,   75,   76,   77,   78,   79,   82
   83,   85,   88,   89,   90,   91,   92,   93,   94,   95,   96,   98,   99,  102,  103,  106
  107,  108,  109,  110,  111,  114,  115,  116,  118,  119,  121,  122,  123,  124,  125,  127
  129,  130,  131,  132,  133,  135,  136,  143,  146,  147,  148,  149,  150,  151,  152,  153
  154,  155,  156,  157,  159,  166,  167,  168,  169,  170,  172,  174,  176,  177,  180,  181
  182,  183,  184,  185,  186,  187,  189,  190,  191,  193,  195,  196,  198,  200,  201,  202
  203,  204,  205,  210,  211,  212,  214,  215,  216,  218,  219,  220,  221,  222,  224,  225
  226,  228,  230,  231,  232,  234,  236,  237,  238,  239,  241,  243,  244,  245,  246,  247
  248,  249,  250,  251,  252,  253,  254,  255,  256,  257,  258,  259,  260,  264,  265,  267
  270,  271,  272,  273,  274,  276,  278,  279,  280,  281,  282,  283,  284,  285,  286,  288
  290,  292,  293,  295,  296,  298,  299,  303,  304,  305,  306,  307,  308,  309,  310,  312
  313,  314,  315,  317,  319,  324,  326,  327,  329,  331,  332,  333,  334,  335,  337,  339
  341,  343,  346,  347,  348,  351,  354,  355,  359,  360,  362,  363,  367,  368,  370,  374
  375,  377,  378,  380,  388,  391,  395,  398,  406,  407,  409,  410,  411,  419,  426,  428
  429,  433,  455,  459,  461,  468,  473,  475,  481,  483,  484,  485,  486,  488,  489,  491
  492,  497,  499,  500,  509,  510,  513,  516,  519,  520,  525,  534,  535,  537,  540,  541
  543,  546,  553,  554,  557,  560,  562,  563,  564,  565,  566,  567,  568,  570,  571,  572
  573,  574,  577,  578,  579,  582,  583,  587,  588,  589,  590,  596,  597,  600,  601,  602
  604,  605,  609,  610,  611,  612,  620,  622,  623,  624,  700,  704,  751,  753,  754,  756
** ... 10 like lines cut
** Section: steel
*Solid Section, elset=crack_bulk, material=steel
,
*System
*Node
   6685,           4.,         4.25,           0.
*Node
   6686,           4.,        -4.25,           0.
*Nset, nset=RP-bot
6686,
*Nset, nset=RP-top
6685,
*Nset, nset=xsym
 599,
*Surface, type=NODE, name=crack_bot-edge_CNS_
crack_bot-edge, 1.
*Surface, type=NODE, name=crack_top-edge_CNS_
crack_top-edge, 1.
** Constraint: Constraint-3
*Equation
2
RP-bot, 6, 1.
RP-top, 6, -1.
** Constraint: Couple-Y-bot
*Coupling, constraint name=Couple-Y-bot, ref node=RP-bot, surface=crack_bot-edge_CNS_
*Kinematic
2, 2
** Constraint: Couple-Y-top
*Coupling, constraint name=Couple-Y-top, ref node=RP-top, surface=crack_top-edge_CNS_
*Kinematic
2, 2
** 
** MATERIALS
** 
*Material, name=steel
*Elastic
3000., 0.3
** 
** BOUNDARY CONDITIONS
** 
** Name: fix-x Type: Displacement/Rotation
*Boundary
xsym, 1, 1
** ----------------------------------------------------------------
** 
** STEP: load-000
** 
*Step, name=load-000, nlgeom=YES, inc=1000
*Static
1., 1., 1e-08, 1.
** 
** BOUNDARY CONDITIONS
** 
** Name: appl-uyy-bot Type: Displacement/Rotation
*Boundary
RP-bot, 1, 1
RP-bot, 2, 2, -0.01
RP-bot, 6, 6
** Name: appl-uyy-top Type: Displacement/Rotation
*Boundary
RP-top, 1, 1
RP-top, 2, 2, 0.01
RP-top, 6, 6
** 
** OUTPUT REQUESTS
** 
*Restart, write, frequency=0
** 
** FIELD OUTPUT: FO-2
** 
*Output, field
**
*Element Output, directions=YES
            COORD,IVOL,
**
*Node Output
COORD,
*Node Output
COORD, 
*Element Output, directions=YES
ENER, 
** 
** FIELD OUTPUT: F-Output-1
** 
*Output, field, variable=PRESELECT
** 
** HISTORY OUTPUT: HO-2
** 
*Output, history
*Node Output, nset=RP-top
RF1, RF2, U1, U2
** 
** HISTORY OUTPUT: H-Output-1
** 
*Output, history, variable=PRESELECT
** 
** HISTORY OUTPUT: H-Output-3
** 
*Contour Integral, crack name=H-Output-3_Crack-0, contours=5, crack tip nodes, type=K FACTORS, normal
0.188281, -0.982115, 0.
crack_crack-tip00, crack_crack-tip00
*End Step
